Version8/Distrib/Examples/InverterModels/PVSystem2/InvControl2/volt-watt/Daily_voltwatt_PMPPPU_pctPmpp60-2.dss
Clear

New Circuit.TheveninEquivalente bus1=A pu=1.0 basekv=13.8 
~ Z0=[10, 10] Z1=[10, 10]

New XYCurve.Eff npts=4 xarray=[.1 .2 .4 1.0] yarray=[1 1 1 1]

New XYCurve.FatorPvsT npts=4 xarray=[0 25 75 100] yarray=[1 1 1 1] 

New Loadshape.Irrad npts=24 interval=1 
~ mult=[0 0 0 0 0 0 .1 .2 .3 .5 .8 .9 1.0 1.0 .99 .9 .7 .4 .1 0 0 0 0 0]

New Tshape.Temp npts=24 interval=1 
~ temp=[25 25 25 25 25 25 25 25 35 40 45 50 60 60 55 40 35 30 25 25 25 25 25 25]

New PVSystem2.PV phases=3 bus1=A Pmpp=1000 kV=13.8 kVA=1000 conn=wye EffCurve=Eff 
~ P-TCurve=FatorPvsT %Pmpp=60 Temperature=25 irradiance=1  daily=Irrad Tdaily=Temp

New XYcurve.generic npts=3 yarray=[1 1 0] xarray=[1 1.02 1.1]

New InvControl2.VoltWatt mode=VOLTWATT voltage_curvex_ref=rated 
~ voltwatt_curve=generic VoltwattYAxis=PMPPPU DeltaP_factor=0.45 activeP=0.00001

New Monitor.PV_currents element=PVSystem2.PV terminal=1 mode=0
New Monitor.PV_powers element=PVSystem2.PV terminal=1 mode=1 ppolar=no
New Monitor.PV_v element=PVSystem2.PV terminal=1 mode=3

Set voltagebases=[13.8]
Calcvoltagebases

set casename=Daily_voltwatt_PMPPPU_%Pmpp60

Set maxcontroli=2000

Set mode=daily
Set stepsize=1h
Set number=24
Solve

Export monitors pv_powers
Export monitors pv_v
Export monitors pv_currents

Plot monitor object= pv_powers channels=(1 3 5 )
Plot monitor object= pv_v channels=(8 )


